/*--------------------------------*- C++ -*----------------------------------*\ 
| =========                 |                                                 | 
| \\      /  F ield         | OpenFOAM: The Open Source CFD Toolbox           | 
|  \\    /   O peration     | Version:  2.1.0                                 | 
|   \\  /    A nd           | Web:      www.OpenFOAM.com                      | 
|    \\/     M anipulation  |                                                 | 
\*---------------------------------------------------------------------------*/ 
FoamFile                                                                        
{                                                                               
    version     2.0;                                                            
    format      ascii;                                                          
    class       dictionary;                                                     
    object      blockMeshDict;                                                  
}                                                                               
// * * * * * * * * * * * * * * * * * * * * * * * * * * * * * * * * * * * * * // 

convertToMeters 1.00; 

vertices 
( 
    (-7.700848 0.500000 0.000000)
    (0.299152 0.500000 8.000000)
    (1.000000 0.500000 8.000000)
    (16.000000 0.500000 8.000000)
    (0.000000 0.500000 0.000000)
    (0.299152 0.500000 0.060007)
    (0.299152 0.500000 -0.060007)
    (1.000000 0.500000 -0.000000)
    (16.000000 0.500000 -0.000000)
    (0.299152 0.500000 -8.000000)
    (1.000000 0.500000 -8.000000)
    (16.000000 0.500000 -8.000000)
    (-7.700848 -0.500000 0.000000)
    (0.299152 -0.500000 8.000000)
    (1.000000 -0.500000 8.000000)
    (16.000000 -0.500000 8.000000)
    (0.000000 -0.500000 0.000000)
    (0.299152 -0.500000 0.060007)
    (0.299152 -0.500000 -0.060007)
    (1.000000 -0.500000 -0.000000)
    (16.000000 -0.500000 -0.000000)
    (0.299152 -0.500000 -8.000000)
    (1.000000 -0.500000 -8.000000)
    (16.000000 -0.500000 -8.000000)
); 

blocks 
( 
    hex (4 5 1 0 16 17 13 12)     (75 100 1) edgeGrading (1 0.020000 0.020000 1 500.000000 500.000000 500.000000 500.000000 1 1 1 1) 
    hex (5 7 2 1 17 19 14 13)     (175 100 1) simpleGrading (1 500.000000 1) 
    hex (7 8 3 2 19 20 15 14)     (150 100 1) simpleGrading (100.000000 500.000000 1) 
    hex (16 18 21 12 4 6 9 0)     (75 100 1) edgeGrading (1 0.020000 0.020000 1 500.000000 500.000000 500.000000 500.000000 1 1 1 1) 
    hex (18 19 22 21 6 7 10 9)    (175 100 1) simpleGrading (1 500.000000 1) 
    hex (19 20 23 22 7 8 11 10)   (150 100 1) simpleGrading (100.000000 500.000000 1) 
); 

edges 
( 
    spline 4 5 
        ( 
            (0.000015 0.500000 0.000700) 
            (0.000062 0.500000 0.001398) 
            (0.000139 0.500000 0.002093) 
            (0.000248 0.500000 0.002786) 
            (0.000387 0.500000 0.003477) 
            (0.000558 0.500000 0.004165) 
            (0.000759 0.500000 0.004851) 
            (0.000992 0.500000 0.005534) 
            (0.001255 0.500000 0.006215) 
            (0.001549 0.500000 0.006894) 
            (0.001874 0.500000 0.007570) 
            (0.002230 0.500000 0.008243) 
            (0.002617 0.500000 0.008914) 
            (0.003035 0.500000 0.009582) 
            (0.003483 0.500000 0.010248) 
            (0.003962 0.500000 0.010911) 
            (0.004472 0.500000 0.011571) 
            (0.005013 0.500000 0.012229) 
            (0.005585 0.500000 0.012884) 
            (0.006187 0.500000 0.013536) 
            (0.006819 0.500000 0.014185) 
            (0.007483 0.500000 0.014832) 
            (0.008176 0.500000 0.015476) 
            (0.008901 0.500000 0.016117) 
            (0.009655 0.500000 0.016755) 
            (0.010441 0.500000 0.017390) 
            (0.011256 0.500000 0.018022) 
            (0.012102 0.500000 0.018651) 
            (0.012978 0.500000 0.019277) 
            (0.013884 0.500000 0.019900) 
            (0.014820 0.500000 0.020520) 
            (0.015787 0.500000 0.021137) 
            (0.016783 0.500000 0.021751) 
            (0.017810 0.500000 0.022361) 
            (0.018866 0.500000 0.022968) 
            (0.019952 0.500000 0.023572) 
            (0.021068 0.500000 0.024172) 
            (0.022214 0.500000 0.024769) 
            (0.023389 0.500000 0.025362) 
            (0.024594 0.500000 0.025952) 
            (0.025828 0.500000 0.026539) 
            (0.027091 0.500000 0.027121) 
            (0.028384 0.500000 0.027700) 
            (0.029706 0.500000 0.028276) 
            (0.031058 0.500000 0.028848) 
            (0.032438 0.500000 0.029416) 
            (0.033848 0.500000 0.029980) 
            (0.035286 0.500000 0.030540) 
            (0.036753 0.500000 0.031096) 
            (0.038249 0.500000 0.031649) 
            (0.039773 0.500000 0.032197) 
            (0.041326 0.500000 0.032741) 
            (0.042908 0.500000 0.033281) 
            (0.044517 0.500000 0.033817) 
            (0.046155 0.500000 0.034349) 
            (0.047821 0.500000 0.034876) 
            (0.049516 0.500000 0.035400) 
            (0.051238 0.500000 0.035918) 
            (0.052988 0.500000 0.036433) 
            (0.054765 0.500000 0.036943) 
            (0.056570 0.500000 0.037448) 
            (0.058403 0.500000 0.037949) 
            (0.060263 0.500000 0.038445) 
            (0.062150 0.500000 0.038937) 
            (0.064065 0.500000 0.039424) 
            (0.066006 0.500000 0.039906) 
            (0.067975 0.500000 0.040383) 
            (0.069970 0.500000 0.040856) 
            (0.071992 0.500000 0.041323) 
            (0.074040 0.500000 0.041786) 
            (0.076115 0.500000 0.042244) 
            (0.078216 0.500000 0.042696) 
            (0.080343 0.500000 0.043144) 
            (0.082497 0.500000 0.043586) 
            (0.084676 0.500000 0.044023) 
            (0.086881 0.500000 0.044455) 
            (0.089111 0.500000 0.044882) 
            (0.091367 0.500000 0.045304) 
            (0.093648 0.500000 0.045720) 
            (0.095955 0.500000 0.046131) 
            (0.098286 0.500000 0.046536) 
            (0.100643 0.500000 0.046936) 
            (0.103024 0.500000 0.047330) 
            (0.105430 0.500000 0.047719) 
            (0.107860 0.500000 0.048102) 
            (0.110315 0.500000 0.048480) 
            (0.112793 0.500000 0.048851) 
            (0.115296 0.500000 0.049218) 
            (0.117823 0.500000 0.049578) 
            (0.120373 0.500000 0.049933) 
            (0.122947 0.500000 0.050282) 
            (0.125544 0.500000 0.050625) 
            (0.128164 0.500000 0.050962) 
            (0.130808 0.500000 0.051293) 
            (0.133474 0.500000 0.051619) 
            (0.136163 0.500000 0.051938) 
            (0.138875 0.500000 0.052252) 
            (0.141609 0.500000 0.052559) 
            (0.144365 0.500000 0.052861) 
            (0.147143 0.500000 0.053156) 
            (0.149943 0.500000 0.053445) 
            (0.152765 0.500000 0.053728) 
            (0.155609 0.500000 0.054005) 
            (0.158473 0.500000 0.054276) 
            (0.161359 0.500000 0.054541) 
            (0.164266 0.500000 0.054800) 
            (0.167194 0.500000 0.055052) 
            (0.170142 0.500000 0.055298) 
            (0.173111 0.500000 0.055538) 
            (0.176100 0.500000 0.055772) 
            (0.179109 0.500000 0.055999) 
            (0.182138 0.500000 0.056220) 
            (0.185187 0.500000 0.056435) 
            (0.188255 0.500000 0.056644) 
            (0.191343 0.500000 0.056846) 
            (0.194449 0.500000 0.057042) 
            (0.197575 0.500000 0.057231) 
            (0.200719 0.500000 0.057415) 
            (0.203882 0.500000 0.057592) 
            (0.207064 0.500000 0.057762) 
            (0.210263 0.500000 0.057927) 
            (0.213481 0.500000 0.058085) 
            (0.216716 0.500000 0.058237) 
            (0.219969 0.500000 0.058382) 
            (0.223239 0.500000 0.058521) 
            (0.226526 0.500000 0.058654) 
            (0.229830 0.500000 0.058780) 
            (0.233151 0.500000 0.058901) 
            (0.236489 0.500000 0.059014) 
            (0.239842 0.500000 0.059122) 
            (0.243212 0.500000 0.059223) 
            (0.246598 0.500000 0.059319) 
            (0.250000 0.500000 0.059407) 
            (0.253417 0.500000 0.059490) 
            (0.256850 0.500000 0.059567) 
            (0.260297 0.500000 0.059637) 
            (0.263759 0.500000 0.059701) 
            (0.267236 0.500000 0.059759) 
            (0.270728 0.500000 0.059811) 
            (0.274233 0.500000 0.059856) 
            (0.277753 0.500000 0.059896) 
            (0.281286 0.500000 0.059930) 
            (0.284833 0.500000 0.059957) 
            (0.288394 0.500000 0.059979) 
            (0.291967 0.500000 0.059994) 
            (0.295553 0.500000 0.060004) 
        ) 
    spline 5 7 
        ( 
            (0.302764 0.500000 0.060005)
            (0.306387 0.500000 0.059997)
            (0.310023 0.500000 0.059982)
            (0.313670 0.500000 0.059963)
            (0.317329 0.500000 0.059937)
            (0.321000 0.500000 0.059906)
            (0.324681 0.500000 0.059868)
            (0.328374 0.500000 0.059826)
            (0.332076 0.500000 0.059777)
            (0.335790 0.500000 0.059723)
            (0.339513 0.500000 0.059664)
            (0.343247 0.500000 0.059598)
            (0.346990 0.500000 0.059528)
            (0.350743 0.500000 0.059452)
            (0.354505 0.500000 0.059370)
            (0.358275 0.500000 0.059284)
            (0.362055 0.500000 0.059191)
            (0.365843 0.500000 0.059094)
            (0.369640 0.500000 0.058991)
            (0.373445 0.500000 0.058883)
            (0.377257 0.500000 0.058770)
            (0.381077 0.500000 0.058652)
            (0.384905 0.500000 0.058529)
            (0.388740 0.500000 0.058401)
            (0.392581 0.500000 0.058268)
            (0.396429 0.500000 0.058130)
            (0.400284 0.500000 0.057987)
            (0.404145 0.500000 0.057840)
            (0.408011 0.500000 0.057687)
            (0.411884 0.500000 0.057530)
            (0.415762 0.500000 0.057368)
            (0.419645 0.500000 0.057202)
            (0.423533 0.500000 0.057031)
            (0.427426 0.500000 0.056855)
            (0.431323 0.500000 0.056675)
            (0.435225 0.500000 0.056491)
            (0.439130 0.500000 0.056302)
            (0.443040 0.500000 0.056109)
            (0.446953 0.500000 0.055912)
            (0.450869 0.500000 0.055711)
            (0.454788 0.500000 0.055505)
            (0.458710 0.500000 0.055295)
            (0.462635 0.500000 0.055082)
            (0.466562 0.500000 0.054864)
            (0.470491 0.500000 0.054643)
            (0.474422 0.500000 0.054417)
            (0.478354 0.500000 0.054188)
            (0.482288 0.500000 0.053955)
            (0.486223 0.500000 0.053718)
            (0.490159 0.500000 0.053478)
            (0.494095 0.500000 0.053234)
            (0.498032 0.500000 0.052987)
            (0.501968 0.500000 0.052736)
            (0.505905 0.500000 0.052481)
            (0.509841 0.500000 0.052224)
            (0.513777 0.500000 0.051962)
            (0.517712 0.500000 0.051698)
            (0.521646 0.500000 0.051431)
            (0.525578 0.500000 0.051160)
            (0.529509 0.500000 0.050886)
            (0.533438 0.500000 0.050610)
            (0.537365 0.500000 0.050330)
            (0.541290 0.500000 0.050047)
            (0.545212 0.500000 0.049762)
            (0.549131 0.500000 0.049473)
            (0.553047 0.500000 0.049182)
            (0.556960 0.500000 0.048888)
            (0.560870 0.500000 0.048592)
            (0.564775 0.500000 0.048293)
            (0.568677 0.500000 0.047991)
            (0.572574 0.500000 0.047687)
            (0.576467 0.500000 0.047381)
            (0.580355 0.500000 0.047072)
            (0.584238 0.500000 0.046761)
            (0.588116 0.500000 0.046447)
            (0.591989 0.500000 0.046132)
            (0.595855 0.500000 0.045814)
            (0.599716 0.500000 0.045494)
            (0.603571 0.500000 0.045172)
            (0.607419 0.500000 0.044848)
            (0.611260 0.500000 0.044522)
            (0.615095 0.500000 0.044194)
            (0.618923 0.500000 0.043865)
            (0.622743 0.500000 0.043533)
            (0.626555 0.500000 0.043200)
            (0.630360 0.500000 0.042865)
            (0.634157 0.500000 0.042529)
            (0.637945 0.500000 0.042191)
            (0.641725 0.500000 0.041851)
            (0.645495 0.500000 0.041510)
            (0.649257 0.500000 0.041168)
            (0.653010 0.500000 0.040824)
            (0.656753 0.500000 0.040479)
            (0.660487 0.500000 0.040133)
            (0.664210 0.500000 0.039785)
            (0.667924 0.500000 0.039436)
            (0.671626 0.500000 0.039086)
            (0.675319 0.500000 0.038735)
            (0.679000 0.500000 0.038383)
            (0.682671 0.500000 0.038030)
            (0.686330 0.500000 0.037676)
            (0.689977 0.500000 0.037322)
            (0.693613 0.500000 0.036966)
            (0.697236 0.500000 0.036610)
            (0.700848 0.500000 0.036253)
            (0.704447 0.500000 0.035895)
            (0.708033 0.500000 0.035536)
            (0.711606 0.500000 0.035177)
            (0.715167 0.500000 0.034818)
            (0.718714 0.500000 0.034458)
            (0.722247 0.500000 0.034098)
            (0.725767 0.500000 0.033737)
            (0.729272 0.500000 0.033376)
            (0.732764 0.500000 0.033014)
            (0.736241 0.500000 0.032653)
            (0.739703 0.500000 0.032291)
            (0.743150 0.500000 0.031929)
            (0.746583 0.500000 0.031567)
            (0.750000 0.500000 0.031204)
            (0.753402 0.500000 0.030842)
            (0.756788 0.500000 0.030480)
            (0.760158 0.500000 0.030118)
            (0.763511 0.500000 0.029756)
            (0.766849 0.500000 0.029394)
            (0.770170 0.500000 0.029033)
            (0.773474 0.500000 0.028672)
            (0.776761 0.500000 0.028311)
            (0.780031 0.500000 0.027950)
            (0.783284 0.500000 0.027590)
            (0.786519 0.500000 0.027230)
            (0.789737 0.500000 0.026871)
            (0.792936 0.500000 0.026512)
            (0.796118 0.500000 0.026154)
            (0.799281 0.500000 0.025797)
            (0.802425 0.500000 0.025440)
            (0.805551 0.500000 0.025084)
            (0.808657 0.500000 0.024728)
            (0.811745 0.500000 0.024374)
            (0.814813 0.500000 0.024020)
            (0.817862 0.500000 0.023668)
            (0.820891 0.500000 0.023316)
            (0.823900 0.500000 0.022965)
            (0.826889 0.500000 0.022616)
            (0.829858 0.500000 0.022267)
            (0.832806 0.500000 0.021920)
            (0.835734 0.500000 0.021573)
            (0.838641 0.500000 0.021228)
            (0.841527 0.500000 0.020884)
            (0.844391 0.500000 0.020542)
            (0.847235 0.500000 0.020201)
            (0.850057 0.500000 0.019861)
            (0.852857 0.500000 0.019523)
            (0.855635 0.500000 0.019186)
            (0.858391 0.500000 0.018851)
            (0.861125 0.500000 0.018517)
            (0.863837 0.500000 0.018185)
            (0.866526 0.500000 0.017855)
            (0.869192 0.500000 0.017526)
            (0.871836 0.500000 0.017199)
            (0.874456 0.500000 0.016874)
            (0.877053 0.500000 0.016551)
            (0.879627 0.500000 0.016230)
            (0.882177 0.500000 0.015910)
            (0.884704 0.500000 0.015593)
            (0.887207 0.500000 0.015278)
            (0.889685 0.500000 0.014964)
            (0.892140 0.500000 0.014653)
            (0.894570 0.500000 0.014344)
            (0.896976 0.500000 0.014037)
            (0.899357 0.500000 0.013733)
            (0.901714 0.500000 0.013431)
            (0.904045 0.500000 0.013131)
            (0.906352 0.500000 0.012833)
            (0.908633 0.500000 0.012538)
            (0.910889 0.500000 0.012245)
            (0.913119 0.500000 0.011955)
            (0.915324 0.500000 0.011667)
            (0.917503 0.500000 0.011382)
            (0.919657 0.500000 0.011100)
            (0.921784 0.500000 0.010820)
            (0.923885 0.500000 0.010543)
            (0.925960 0.500000 0.010269)
            (0.928008 0.500000 0.009998)
            (0.930030 0.500000 0.009729)
            (0.932025 0.500000 0.009463)
            (0.933994 0.500000 0.009200)
            (0.935935 0.500000 0.008941)
            (0.937850 0.500000 0.008684)
            (0.939737 0.500000 0.008430)
            (0.941597 0.500000 0.008179)
            (0.943430 0.500000 0.007932)
            (0.945235 0.500000 0.007687)
            (0.947012 0.500000 0.007446)
            (0.948762 0.500000 0.007208)
            (0.950484 0.500000 0.006973)
            (0.952179 0.500000 0.006742)
            (0.953845 0.500000 0.006514)
            (0.955483 0.500000 0.006289)
            (0.957092 0.500000 0.006068)
            (0.958674 0.500000 0.005850)
            (0.960227 0.500000 0.005636)
            (0.961751 0.500000 0.005425)
            (0.963247 0.500000 0.005218)
            (0.964714 0.500000 0.005014)
            (0.966152 0.500000 0.004814)
            (0.967562 0.500000 0.004618)
            (0.968942 0.500000 0.004425)
            (0.970294 0.500000 0.004236)
            (0.971616 0.500000 0.004051)
            (0.972909 0.500000 0.003870)
            (0.974172 0.500000 0.003692)
            (0.975406 0.500000 0.003519)
            (0.976611 0.500000 0.003349)
            (0.977786 0.500000 0.003183)
            (0.978932 0.500000 0.003021)
            (0.980048 0.500000 0.002863)
            (0.981134 0.500000 0.002709)
            (0.982190 0.500000 0.002559)
            (0.983217 0.500000 0.002413)
            (0.984213 0.500000 0.002271)
            (0.985180 0.500000 0.002134)
            (0.986116 0.500000 0.002000)
            (0.987022 0.500000 0.001871)
            (0.987898 0.500000 0.001745)
            (0.988744 0.500000 0.001624)
            (0.989559 0.500000 0.001507)
            (0.990345 0.500000 0.001395)
            (0.991099 0.500000 0.001286)
            (0.991824 0.500000 0.001182)
            (0.992517 0.500000 0.001082)
            (0.993181 0.500000 0.000987)
            (0.993813 0.500000 0.000896)
            (0.994415 0.500000 0.000809)
            (0.994987 0.500000 0.000726)
            (0.995528 0.500000 0.000648)
            (0.996038 0.500000 0.000574)
            (0.996517 0.500000 0.000505)
            (0.996965 0.500000 0.000440)
            (0.997383 0.500000 0.000380)
            (0.997770 0.500000 0.000324)
            (0.998126 0.500000 0.000272)
            (0.998451 0.500000 0.000225)
            (0.998745 0.500000 0.000182)
            (0.999008 0.500000 0.000144)
            (0.999241 0.500000 0.000110)
            (0.999442 0.500000 0.000081)
            (0.999613 0.500000 0.000056)
            (0.999752 0.500000 0.000036)
            (0.999861 0.500000 0.000020)
            (0.999938 0.500000 0.000009)
            (0.999985 0.500000 0.000002)
        ) 
    spline 4 6 
        ( 
            (0.000015 0.500000 -0.000700)
            (0.000062 0.500000 -0.001398)
            (0.000139 0.500000 -0.002093)
            (0.000248 0.500000 -0.002786)
            (0.000387 0.500000 -0.003477)
            (0.000558 0.500000 -0.004165)
            (0.000759 0.500000 -0.004851)
            (0.000992 0.500000 -0.005534)
            (0.001255 0.500000 -0.006215)
            (0.001549 0.500000 -0.006894)
            (0.001874 0.500000 -0.007570)
            (0.002230 0.500000 -0.008243)
            (0.002617 0.500000 -0.008914)
            (0.003035 0.500000 -0.009582)
            (0.003483 0.500000 -0.010248)
            (0.003962 0.500000 -0.010911)
            (0.004472 0.500000 -0.011571)
            (0.005013 0.500000 -0.012229)
            (0.005585 0.500000 -0.012884)
            (0.006187 0.500000 -0.013536)
            (0.006819 0.500000 -0.014185)
            (0.007483 0.500000 -0.014832)
            (0.008176 0.500000 -0.015476)
            (0.008901 0.500000 -0.016117)
            (0.009655 0.500000 -0.016755)
            (0.010441 0.500000 -0.017390)
            (0.011256 0.500000 -0.018022)
            (0.012102 0.500000 -0.018651)
            (0.012978 0.500000 -0.019277)
            (0.013884 0.500000 -0.019900)
            (0.014820 0.500000 -0.020520)
            (0.015787 0.500000 -0.021137)
            (0.016783 0.500000 -0.021751)
            (0.017810 0.500000 -0.022361)
            (0.018866 0.500000 -0.022968)
            (0.019952 0.500000 -0.023572)
            (0.021068 0.500000 -0.024172)
            (0.022214 0.500000 -0.024769)
            (0.023389 0.500000 -0.025362)
            (0.024594 0.500000 -0.025952)
            (0.025828 0.500000 -0.026539)
            (0.027091 0.500000 -0.027121)
            (0.028384 0.500000 -0.027700)
            (0.029706 0.500000 -0.028276)
            (0.031058 0.500000 -0.028848)
            (0.032438 0.500000 -0.029416)
            (0.033848 0.500000 -0.029980)
            (0.035286 0.500000 -0.030540)
            (0.036753 0.500000 -0.031096)
            (0.038249 0.500000 -0.031649)
            (0.039773 0.500000 -0.032197)
            (0.041326 0.500000 -0.032741)
            (0.042908 0.500000 -0.033281)
            (0.044517 0.500000 -0.033817)
            (0.046155 0.500000 -0.034349)
            (0.047821 0.500000 -0.034876)
            (0.049516 0.500000 -0.035400)
            (0.051238 0.500000 -0.035918)
            (0.052988 0.500000 -0.036433)
            (0.054765 0.500000 -0.036943)
            (0.056570 0.500000 -0.037448)
            (0.058403 0.500000 -0.037949)
            (0.060263 0.500000 -0.038445)
            (0.062150 0.500000 -0.038937)
            (0.064065 0.500000 -0.039424)
            (0.066006 0.500000 -0.039906)
            (0.067975 0.500000 -0.040383)
            (0.069970 0.500000 -0.040856)
            (0.071992 0.500000 -0.041323)
            (0.074040 0.500000 -0.041786)
            (0.076115 0.500000 -0.042244)
            (0.078216 0.500000 -0.042696)
            (0.080343 0.500000 -0.043144)
            (0.082497 0.500000 -0.043586)
            (0.084676 0.500000 -0.044023)
            (0.086881 0.500000 -0.044455)
            (0.089111 0.500000 -0.044882)
            (0.091367 0.500000 -0.045304)
            (0.093648 0.500000 -0.045720)
            (0.095955 0.500000 -0.046131)
            (0.098286 0.500000 -0.046536)
            (0.100643 0.500000 -0.046936)
            (0.103024 0.500000 -0.047330)
            (0.105430 0.500000 -0.047719)
            (0.107860 0.500000 -0.048102)
            (0.110315 0.500000 -0.048480)
            (0.112793 0.500000 -0.048851)
            (0.115296 0.500000 -0.049218)
            (0.117823 0.500000 -0.049578)
            (0.120373 0.500000 -0.049933)
            (0.122947 0.500000 -0.050282)
            (0.125544 0.500000 -0.050625)
            (0.128164 0.500000 -0.050962)
            (0.130808 0.500000 -0.051293)
            (0.133474 0.500000 -0.051619)
            (0.136163 0.500000 -0.051938)
            (0.138875 0.500000 -0.052252)
            (0.141609 0.500000 -0.052559)
            (0.144365 0.500000 -0.052861)
            (0.147143 0.500000 -0.053156)
            (0.149943 0.500000 -0.053445)
            (0.152765 0.500000 -0.053728)
            (0.155609 0.500000 -0.054005)
            (0.158473 0.500000 -0.054276)
            (0.161359 0.500000 -0.054541)
            (0.164266 0.500000 -0.054800)
            (0.167194 0.500000 -0.055052)
            (0.170142 0.500000 -0.055298)
            (0.173111 0.500000 -0.055538)
            (0.176100 0.500000 -0.055772)
            (0.179109 0.500000 -0.055999)
            (0.182138 0.500000 -0.056220)
            (0.185187 0.500000 -0.056435)
            (0.188255 0.500000 -0.056644)
            (0.191343 0.500000 -0.056846)
            (0.194449 0.500000 -0.057042)
            (0.197575 0.500000 -0.057231)
            (0.200719 0.500000 -0.057415)
            (0.203882 0.500000 -0.057592)
            (0.207064 0.500000 -0.057762)
            (0.210263 0.500000 -0.057927)
            (0.213481 0.500000 -0.058085)
            (0.216716 0.500000 -0.058237)
            (0.219969 0.500000 -0.058382)
            (0.223239 0.500000 -0.058521)
            (0.226526 0.500000 -0.058654)
            (0.229830 0.500000 -0.058780)
            (0.233151 0.500000 -0.058901)
            (0.236489 0.500000 -0.059014)
            (0.239842 0.500000 -0.059122)
            (0.243212 0.500000 -0.059223)
            (0.246598 0.500000 -0.059319)
            (0.250000 0.500000 -0.059407)
            (0.253417 0.500000 -0.059490)
            (0.256850 0.500000 -0.059567)
            (0.260297 0.500000 -0.059637)
            (0.263759 0.500000 -0.059701)
            (0.267236 0.500000 -0.059759)
            (0.270728 0.500000 -0.059811)
            (0.274233 0.500000 -0.059856)
            (0.277753 0.500000 -0.059896)
            (0.281286 0.500000 -0.059930)
            (0.284833 0.500000 -0.059957)
            (0.288394 0.500000 -0.059979)
            (0.291967 0.500000 -0.059994)
            (0.295553 0.500000 -0.060004)
        ) 
    spline 6 7 
        ( 
            (0.302764 0.500000 -0.060005)
            (0.306387 0.500000 -0.059997)
            (0.310023 0.500000 -0.059982)
            (0.313670 0.500000 -0.059963)
            (0.317329 0.500000 -0.059937)
            (0.321000 0.500000 -0.059906)
            (0.324681 0.500000 -0.059868)
            (0.328374 0.500000 -0.059826)
            (0.332076 0.500000 -0.059777)
            (0.335790 0.500000 -0.059723)
            (0.339513 0.500000 -0.059664)
            (0.343247 0.500000 -0.059598)
            (0.346990 0.500000 -0.059528)
            (0.350743 0.500000 -0.059452)
            (0.354505 0.500000 -0.059370)
            (0.358275 0.500000 -0.059284)
            (0.362055 0.500000 -0.059191)
            (0.365843 0.500000 -0.059094)
            (0.369640 0.500000 -0.058991)
            (0.373445 0.500000 -0.058883)
            (0.377257 0.500000 -0.058770)
            (0.381077 0.500000 -0.058652)
            (0.384905 0.500000 -0.058529)
            (0.388740 0.500000 -0.058401)
            (0.392581 0.500000 -0.058268)
            (0.396429 0.500000 -0.058130)
            (0.400284 0.500000 -0.057987)
            (0.404145 0.500000 -0.057840)
            (0.408011 0.500000 -0.057687)
            (0.411884 0.500000 -0.057530)
            (0.415762 0.500000 -0.057368)
            (0.419645 0.500000 -0.057202)
            (0.423533 0.500000 -0.057031)
            (0.427426 0.500000 -0.056855)
            (0.431323 0.500000 -0.056675)
            (0.435225 0.500000 -0.056491)
            (0.439130 0.500000 -0.056302)
            (0.443040 0.500000 -0.056109)
            (0.446953 0.500000 -0.055912)
            (0.450869 0.500000 -0.055711)
            (0.454788 0.500000 -0.055505)
            (0.458710 0.500000 -0.055295)
            (0.462635 0.500000 -0.055082)
            (0.466562 0.500000 -0.054864)
            (0.470491 0.500000 -0.054643)
            (0.474422 0.500000 -0.054417)
            (0.478354 0.500000 -0.054188)
            (0.482288 0.500000 -0.053955)
            (0.486223 0.500000 -0.053718)
            (0.490159 0.500000 -0.053478)
            (0.494095 0.500000 -0.053234)
            (0.498032 0.500000 -0.052987)
            (0.501968 0.500000 -0.052736)
            (0.505905 0.500000 -0.052481)
            (0.509841 0.500000 -0.052224)
            (0.513777 0.500000 -0.051962)
            (0.517712 0.500000 -0.051698)
            (0.521646 0.500000 -0.051431)
            (0.525578 0.500000 -0.051160)
            (0.529509 0.500000 -0.050886)
            (0.533438 0.500000 -0.050610)
            (0.537365 0.500000 -0.050330)
            (0.541290 0.500000 -0.050047)
            (0.545212 0.500000 -0.049762)
            (0.549131 0.500000 -0.049473)
            (0.553047 0.500000 -0.049182)
            (0.556960 0.500000 -0.048888)
            (0.560870 0.500000 -0.048592)
            (0.564775 0.500000 -0.048293)
            (0.568677 0.500000 -0.047991)
            (0.572574 0.500000 -0.047687)
            (0.576467 0.500000 -0.047381)
            (0.580355 0.500000 -0.047072)
            (0.584238 0.500000 -0.046761)
            (0.588116 0.500000 -0.046447)
            (0.591989 0.500000 -0.046132)
            (0.595855 0.500000 -0.045814)
            (0.599716 0.500000 -0.045494)
            (0.603571 0.500000 -0.045172)
            (0.607419 0.500000 -0.044848)
            (0.611260 0.500000 -0.044522)
            (0.615095 0.500000 -0.044194)
            (0.618923 0.500000 -0.043865)
            (0.622743 0.500000 -0.043533)
            (0.626555 0.500000 -0.043200)
            (0.630360 0.500000 -0.042865)
            (0.634157 0.500000 -0.042529)
            (0.637945 0.500000 -0.042191)
            (0.641725 0.500000 -0.041851)
            (0.645495 0.500000 -0.041510)
            (0.649257 0.500000 -0.041168)
            (0.653010 0.500000 -0.040824)
            (0.656753 0.500000 -0.040479)
            (0.660487 0.500000 -0.040133)
            (0.664210 0.500000 -0.039785)
            (0.667924 0.500000 -0.039436)
            (0.671626 0.500000 -0.039086)
            (0.675319 0.500000 -0.038735)
            (0.679000 0.500000 -0.038383)
            (0.682671 0.500000 -0.038030)
            (0.686330 0.500000 -0.037676)
            (0.689977 0.500000 -0.037322)
            (0.693613 0.500000 -0.036966)
            (0.697236 0.500000 -0.036610)
            (0.700848 0.500000 -0.036253)
            (0.704447 0.500000 -0.035895)
            (0.708033 0.500000 -0.035536)
            (0.711606 0.500000 -0.035177)
            (0.715167 0.500000 -0.034818)